artifacts/measurements/out_measurements_parameter_topology_physical_preview/cases_parameter_error/case_param_topology_err_553298918554.m
function mpc = case_param_topology_err_553298918554
mpc.version = '2';
mpc.baseMVA = 100;

mpc.bus = [
    1 3 0 0 0 0 1 1.06 0 135 1 2 0 0 0 0 0 0;
    2 2 21.7 12.7 0 0 1 1.045 -6.7080984627 135 1 2 0 0 0 0 0 0;
    3 2 94.2 19 0 0 1 1.01 -11.5371915602 135 1 2 0 0 0 0 0 0;
    4 1 47.8 -3.9 0 0 1 1.02999590511 -6.65654221211 135 1 2 0 0 0 0 0 0;
    5 1 7.6 1.6 0 0 1 1.03521506531 -3.34425949989 135 1 2 0 0 0 0 0 0;
    6 2 11.2 7.5 0 0 1 1.07 -9.6577639321 0.208 1 2 0 0 0 0 0 0;
    7 1 0 0 0 0 1 1.05540477687 -9.4731968013 14 1 2 0 0 0 0 0 0;
    8 2 0 0 0 0 1 1.09 -9.4731968013 12 1 2 0 0 0 0 0 0;
    9 1 29.5 16.6 0 19 1 1.0481586863 -10.9288248851 0.208 1 2 0 0 0 0 0 0;
    10 1 9 5.8 0 0 1 1.04440033636 -10.9888979131 0.208 1 2 0 0 0 0 0 0;
    11 1 3.5 1.8 0 0 1 1.05338788352 -10.453964393 0.208 1 2 0 0 0 0 0 0;
    12 1 6.1 1.6 0 0 1 1.05469438526 -10.5562633771 0.208 1 2 0 0 0 0 0 0;
    13 1 13.5 5.8 0 0 1 1.04910299344 -10.6698847542 0.208 1 2 0 0 0 0 0 0;
    14 1 14.9 5 0 0 1 1.03045556015 -11.824926437 0.208 1 2 0 0 0 0 0 0;
];

mpc.gen = [
    1 233.711794875 -46.799137541 0 0 1.06 1 1 1000000000 -1000000000 0 0 0 0 0 0 0 0 0 0 0 0 0 0 0 1;
    2 40 41.0211582184 1000000000 -1000000000 1.045 nan 1 1000000000 -1000000000 0 0 0 0 0 0 0 0 0 0 0 0 0 0 0 0;
    3 0 20.3383407593 2000000000 -2000000000 1.01 nan 1 2000000000 -2000000000 0 0 0 0 0 0 0 0 0 0 0 0 0 0 0 0;
    6 0 39.3467429876 1000000000 -1000000000 1.07 nan 1 1000000000 -1000000000 0 0 0 0 0 0 0 0 0 0 0 0 0 0 0 0;
    8 0 21.4072060585 1000000000 -1000000000 1.09 nan 1 1000000000 -1000000000 0 0 0 0 0 0 0 0 0 0 0 0 0 0 0 0;
];

mpc.branch = [
    1 5 0.0166117071454 0.0242597387394 0.0492 100 0 0 0 0 1 -360 360 233.711794875 -46.799137541 -225.349717642 53.6107511811 0 0 0 0 0;
    2 3 0.04699 0.19797 0.0438 100 0 0 0 0 1 -360 360 47.0643001277 6.8048474336 -46.0747694118 -7.2614844819 0 0 0 0 0;
    2 4 0.05811 0.17632 0.034 100 0 0 0 0 1 -360 360 2.1481706521 6.32834251971 -2.11006725264 -9.87268561501 0 0 0 0 0;
    2 5 0.05695 0.17388 0.0346 100 0 0 0 0 1 -360 360 -30.9124707745 15.187968297 31.5629013581 -16.9452634202 0 0 0 0 0;
    3 4 0.06701 0.17103 0.0128 100 0 0 0 0 1 -360 360 -48.125230587 8.59982540549 49.7028658373 -5.90505268171 0 0 0 0 0;
    4 5 0.01335 0.04211 0 100 0 0 0 0 1 -360 360 -135.397613402 34.3887838198 137.853346133 -26.6426485903 0 0 0 0 0;
    4 7 0 0.20912 -0 100 0 0 0 0 1 -360 360 25.5443586188 -11.8868347258 -25.5443586188 13.4515731229 0 0 0 0 0;
    4 9 0 0.55618 -0 100 0 0 0 0 1 -360 360 14.4604562143 -2.8242107969 -14.4604562143 3.96227327825 0 0 0 0 0;
    5 6 0 0.25202 -0 100 0 0 0 0 1 -360 360 48.3334701605 -11.6228391392 -48.3334701605 17.4342867033 0 0 0 0 0;
    6 11 0.09498 0.1989 0 100 0 0 0 0 1 -360 360 9.90862934135 4.25971593609 -9.81212611461 -4.05762610877 0 0 0 0 0;
    6 12 0.12291 0.25581 0 100 0 0 0 0 1 -360 360 8.140602229 2.54491724247 -8.06250622154 -2.38237766334 0 0 0 0 0;
    6 13 0.06615 0.13027 0 100 0 0 0 0 1 -360 360 19.0842385916 7.60782303512 -18.840365206 -7.1275602092 0 0 0 0 0;
    7 8 0 0.17615 -0 100 0 0 0 0 1 -360 360 1.0509875456e-14 -20.7277682378 -9.73782459461e-15 21.4072059122 0 0 0 0 0;
    7 9 0 0.11001 -0 100 0 0 0 0 1 -360 360 25.5443586188 7.27619511492 -25.5443586188 -6.57946470142 0 0 0 0 0;
    9 10 0.03181 0.0845 0 100 0 0 0 0 1 -360 360 2.72708539497 3.63605085317 -2.72110410393 -3.62016216744 0 0 0 0 0;
    9 14 0.12711 0.27038 0 100 0 0 0 0 1 -360 360 7.77772943799 3.25523657175 -7.69548018537 -3.08028139182 0 0 0 0 0;
    10 11 0.08205 0.19207 0 100 0 0 0 0 1 -360 360 -6.27889589609 -2.17983783254 6.31212611458 2.25762610879 0 0 0 0 0;
    12 13 0.22092 0.19988 0 100 0 0 0 0 1 -360 360 1.96250622154 0.782377663342 -1.95364156873 -0.774357263186 0 0 0 0 0;
    13 14 0.17093 0.34802 0 100 0 0 0 0 1 -360 360 7.29400677476 2.10191747239 -7.20451981463 -1.91971860817 0 0 0 0 0;
];

